Circuit: * C:\Users\itsan\Documents\1GitRepositories\MedicalRobotics\Projects\EMG_Sensor\firstAmplification.asc

Direct Newton iteration failed to find .op point.  (Use ".option noopiter" to skip.)
Starting Gmin stepping
Gmin = 10
Gmin = 1.07374
Gmin = 0.115292
Gmin = 0.0123794
Gmin = 0.00132923
Gmin = 0.000142725
Gmin = 1.5325e-005
Gmin = 1.6455e-006
Gmin = 1.76685e-007
Gmin = 1.89714e-008
Gmin = 2.03704e-009
Gmin = 2.18725e-010
Gmin = 2.34854e-011
Gmin = 2.52173e-012
Gmin = 2.70769e-013
Gmin = 0
Gmin stepping succeeded in finding the operating point.


Date: Wed Feb 23 20:06:53 2022
Total elapsed time: 0.272 seconds.

tnom = 27
temp = 27
method = modified trap
totiter = 16546
traniter = 16188
tranpoints = 6705
accept = 4573
rejected = 2132
matrix size = 34
fillins = 34
solver = Normal
Thread vector: 15.4/3.1[2] 1.9/1.4[2] 0.5/0.5[1] 0.1/0.6[1]  2592/500
Matrix Compiler1: 3.22 KB object code size  0.6/0.3/[0.2]
Matrix Compiler2: off  [0.2]/0.4/0.3

