Circuit: * C:\Users\itsan\Documents\1GitRepositories\MedicalRobotics\Projects\EMG_Sensor\Sample Raw EMG Signal.asc

WARNING: Less than two connections to node EMG_RAW.  This node is used by V:U1:OSO.
Direct Newton iteration for .op point succeeded.

Date: Mon Feb 21 19:54:37 2022
Total elapsed time: 0.148 seconds.

tnom = 27
temp = 27
method = modified trap
totiter = 10219
traniter = 10209
tranpoints = 3918
accept = 2809
rejected = 1109
matrix size = 117
fillins = 17
solver = Normal
Thread vector: 6.9/3.6[3] 2.6/1.6[3] 1.5/1.0[3] 0.4/1.4[1]  2592/500
Matrix Compiler1: 4.26 KB object code size  1.4/0.7/[0.4]
Matrix Compiler2: 8.31 KB object code size  0.8/1.3/[0.7]

