Circuit: * C:\Users\Ryan\Downloads\BMERobotics4thOrderNotch.asc

Ignoring empty pin current: Ix(u1:1)
Ignoring empty pin current: Ix(u1:2)
Ignoring empty pin current: Ix(u2:1)
Ignoring empty pin current: Ix(u2:2)
Ignoring empty pin current: Ix(u3:1)
Ignoring empty pin current: Ix(u3:2)
Ignoring empty pin current: Ix(u4:1)
Ignoring empty pin current: Ix(u4:2)
Ignoring empty pin current: Ix(u7:1)
Ignoring empty pin current: Ix(u7:2)

Date: Fri Mar 19 16:16:55 2021
Total elapsed time: 0.052 seconds.

tnom = 27
temp = 27
method = trap
totiter = 0
traniter = 0
tranpoints = 0
accept = 0
rejected = 0
matrix size = 16
fillins = 1
solver = Normal

