Circuit: * C:\Users\sophi\OneDrive\Documents\Limbo\Electrical\Projects\EMG_Sensor\firstAmplification.asc

Direct Newton iteration failed to find .op point.  (Use ".option noopiter" to skip.)
Starting Gmin stepping
Gmin = 10
Gmin = 1.07374
Gmin = 0.115292
Gmin = 0.0123794
Gmin = 0.00132923
Gmin = 0.000142725
Gmin = 1.5325e-005
Gmin = 1.6455e-006
Gmin = 1.76685e-007
Gmin = 1.89714e-008
Gmin = 2.03704e-009
Gmin = 2.18725e-010
Gmin = 2.34854e-011
Gmin = 2.52173e-012
Gmin = 2.70769e-013
Gmin = 0
Gmin stepping succeeded in finding the operating point.


Date: Wed Feb 23 19:47:24 2022
Total elapsed time: 0.311 seconds.

tnom = 27
temp = 27
method = modified trap
totiter = 17308
traniter = 16955
tranpoints = 7036
accept = 4794
rejected = 2242
matrix size = 34
fillins = 32
solver = Normal
Thread vector: 7.8/5.2[2] 4.9/4.0[2] 1.1/1.0[2] 0.2/0.9[1]  2592/500
Matrix Compiler1: 3.24 KB object code size  1.5/0.8/[0.4]
Matrix Compiler2: 3.80 KB object code size  0.6/0.8/[0.5]

