Circuit: * C:\Users\Ryan\Documents\1GitRepositories\HandIO\Active EMG Signal Filter\Sample Raw EMG Signal.asc

WARNING: Less than two connections to node EMG_RAW.  This node is used by V:U1:OSO.
Direct Newton iteration for .op point succeeded.

Date: Wed Dec 22 22:02:47 2021
Total elapsed time: 0.155 seconds.

tnom = 27
temp = 27
method = modified trap
totiter = 10403
traniter = 10393
tranpoints = 4011
accept = 2906
rejected = 1105
matrix size = 120
fillins = 16
solver = Normal
Thread vector: 9.5/4.7[3] 3.6/2.9[3] 2.0/2.9[1] 0.3/2.1[1]  2592/500
Matrix Compiler1: 4.28 KB object code size  1.9/1.0/[0.3]
Matrix Compiler2: 8.46 KB object code size  1.3/1.9/[0.5]

